Version 4
SHEET 1 880 680
WIRE -144 0 -192 0
WIRE 32 0 -64 0
WIRE 272 0 112 0
WIRE 272 80 272 0
WIRE -192 96 -192 0
WIRE -192 240 -192 176
WIRE 80 240 -192 240
WIRE 272 240 272 144
WIRE 272 240 80 240
WIRE 80 304 80 240
FLAG 80 304 0
SYMBOL res 128 -16 R90
WINDOW 0 0 56 VBottom 2
WINDOW 3 32 56 VTop 2
SYMATTR InstName R1
SYMATTR Value {mc(3.68k,tola)}
SYMBOL cap 256 80 R0
SYMATTR InstName C1
SYMATTR Value {mc(560p,tolb)}
SYMBOL res -48 -16 R90
WINDOW 0 0 56 VBottom 2
WINDOW 3 32 56 VTop 2
SYMATTR InstName R2
SYMATTR Value 50
SYMBOL Misc\\signal -192 80 R0
WINDOW 123 24 132 Left 2
WINDOW 39 0 0 Left 2
SYMATTR Value2 AC 1
SYMATTR InstName V1
TEXT 416 -40 Left 2 !.ac dec 10 1 10meg
TEXT 408 0 Left 2 !.param tola=0.05
TEXT 408 48 Left 2 !.param tolb=0.1
TEXT 408 96 Left 2 !.step param run 1 100 1
