Version 4
SHEET 1 880 680
WIRE 32 0 -96 0
WIRE 272 0 112 0
WIRE 272 80 272 0
WIRE -96 96 -96 0
WIRE -96 240 -96 176
WIRE 80 240 -96 240
WIRE 272 240 272 144
WIRE 272 240 80 240
WIRE 80 304 80 240
FLAG 80 304 0
SYMBOL Misc\\signal -96 80 R0
WINDOW 123 24 132 Left 2
WINDOW 39 0 0 Left 2
SYMATTR InstName V1
SYMATTR Value2 AC 1 0
SYMBOL res 128 -16 R90
WINDOW 0 0 56 VBottom 2
WINDOW 3 32 56 VTop 2
SYMATTR InstName R1
SYMATTR Value {mc(3.68k,tola)}
SYMATTR SpiceLine tol=tola
SYMBOL cap 256 80 R0
SYMATTR InstName C1
SYMATTR Value {mc(560p,tola)}
TEXT -130 328 Left 2 !.ac dec 10 10 100000k
TEXT 392 0 Left 2 !.param tola=0.05
TEXT 384 32 Left 2 !.step param run 1 100 1
