Version 4
SHEET 1 880 680
WIRE -16 64 -128 64
WIRE 16 64 -16 64
WIRE 128 64 96 64
WIRE 240 64 208 64
WIRE 272 64 240 64
WIRE 400 64 352 64
WIRE 512 64 480 64
WIRE 240 80 240 64
WIRE -128 96 -128 64
WIRE 288 144 240 144
WIRE 240 160 240 144
WIRE 288 160 288 144
WIRE -128 176 -144 176
WIRE -16 240 -16 64
WIRE 112 240 -16 240
WIRE 240 240 176 240
WIRE 272 240 240 240
WIRE 512 240 512 64
WIRE 512 240 336 240
FLAG 288 160 0
FLAG -144 176 0
FLAG -128 64 Vin
SYMBOL res 368 48 R90
WINDOW 0 0 56 VBottom 2
WINDOW 3 32 56 VTop 2
SYMATTR InstName R4
SYMATTR Value 1.5k
SYMATTR SpiceLine tol=5
SYMBOL res 256 256 R180
WINDOW 0 36 76 Left 2
WINDOW 3 36 40 Left 2
SYMATTR InstName R3
SYMATTR Value 1.5k
SYMATTR SpiceLine tol=5
SYMBOL cap 176 224 R90
WINDOW 0 0 32 VBottom 2
WINDOW 3 32 32 VTop 2
SYMATTR InstName C1
SYMATTR Value 4.7n
SYMBOL cap 336 224 R90
WINDOW 0 0 32 VBottom 2
WINDOW 3 32 32 VTop 2
SYMATTR InstName C2
SYMATTR Value 4.7n
SYMBOL cap 256 144 R180
WINDOW 0 24 56 Left 2
WINDOW 3 24 8 Left 2
SYMATTR InstName C3
SYMATTR Value 10n
SYMBOL res 224 48 R90
WINDOW 0 0 56 VBottom 2
WINDOW 3 32 56 VTop 2
SYMATTR InstName R2
SYMATTR Value 1.5k
SYMATTR SpiceLine tol=5
SYMBOL voltage -128 80 R0
WINDOW 3 24 44 Left 2
WINDOW 123 24 44 Left 2
WINDOW 39 0 0 Left 0
SYMATTR InstName ac
SYMATTR Value ""
SYMATTR Value2 AC 1
SYMBOL res 496 48 R90
WINDOW 0 0 56 VBottom 2
WINDOW 3 32 56 VTop 2
SYMATTR InstName R5
SYMATTR Value 1.5k
SYMATTR SpiceLine tol=5
SYMBOL res 112 48 R90
WINDOW 0 0 56 VBottom 2
WINDOW 3 32 56 VTop 2
SYMATTR InstName R1
SYMATTR Value 1.5k
SYMATTR SpiceLine tol=5
TEXT -12 290 Left 2 !;.tran 0.0002
TEXT -14 310 Left 2 !.ac dec 1000 1 1g
